Version 4
SHEET 1 880 680
WIRE -112 -112 -240 -112
WIRE 48 -112 -112 -112
WIRE 416 -112 48 -112
WIRE 608 -112 416 -112
WIRE 608 -96 608 -112
WIRE -112 48 -112 -112
WIRE -96 48 -112 48
WIRE 608 64 608 -16
WIRE 608 64 512 64
WIRE 160 80 112 80
WIRE 416 80 416 -112
WIRE 416 80 384 80
WIRE 608 80 608 64
WIRE -240 128 -240 -112
WIRE 160 144 128 144
WIRE 384 144 368 144
WIRE 512 144 512 64
WIRE 512 144 384 144
WIRE -96 208 -96 128
WIRE 160 208 -96 208
WIRE 384 208 368 208
WIRE 400 208 384 208
WIRE 48 272 48 -112
WIRE 160 272 48 272
WIRE 608 320 608 160
WIRE 128 336 128 144
WIRE 400 336 400 208
WIRE 400 336 128 336
WIRE -240 368 -240 208
WIRE -48 368 -240 368
WIRE 112 368 112 80
WIRE 112 368 -48 368
WIRE -48 400 -48 368
FLAG 608 384 0
FLAG -48 400 0
SYMBOL Misc\\NE555 272 176 R0
SYMATTR InstName U1
SYMBOL res 592 -112 R0
SYMATTR InstName R1
SYMATTR Value 5k
SYMBOL res 592 64 R0
SYMATTR InstName R2
SYMATTR Value 3k
SYMBOL cap 592 320 R0
SYMATTR InstName C1
SYMATTR Value 0.15µ
SYMBOL voltage -240 112 R0
WINDOW 123 0 0 Left 0
WINDOW 39 0 0 Left 0
SYMATTR InstName V1
SYMATTR Value SINE(0 10 50)
SYMBOL res -112 32 R0
SYMATTR InstName R3
SYMATTR Value 10k
TEXT -274 424 Left 2 !.tran 0.05
